AMOSTRA/ABA/Trafos.dss
! ==========================================================
! TRANSFORMADORES DE DISTRIBUICAO — gerados de UNTRMT/EQTRMT
! Secundario 1F/2F: 3 enrolamentos com derivacao central
! Neutro no no 4, aterrado em _ATERRAMENTO.dss
! Kv de BT conforme TEN_LIN_SE da BDGD
! ==========================================================
New Transformer.3098440 phases=3 windings=2 Xhl=1.200
~ wdg=1 bus=16102-10868415.1.2.3 conn=delta Kv=13.8 Kva=45.0 %R=0.500
~ wdg=2 bus=3098440-10868416.1.2.3.4 conn=wye Kv=0.2200 Kva=45.0 %R=0.500
New Transformer.2783440 phases=3 windings=2 Xhl=1.200
~ wdg=1 bus=16102-10868516.1.2.3 conn=delta Kv=13.8 Kva=112.5 %R=0.500
~ wdg=2 bus=2783440-10868516v.1.2.3.4 conn=wye Kv=0.2200 Kva=112.5 %R=0.500
New Transformer.2783470 phases=3 windings=2 Xhl=1.200
~ wdg=1 bus=16102-10868696.1.2.3 conn=delta Kv=13.8 Kva=75.0 %R=0.500
~ wdg=2 bus=2783470-10868697.1.2.3.4 conn=wye Kv=0.2200 Kva=75.0 %R=0.500
New Transformer.2783392 phases=3 windings=2 Xhl=1.200
~ wdg=1 bus=16102-10868737.1.2.3 conn=delta Kv=13.8 Kva=112.5 %R=0.500
~ wdg=2 bus=2783392-10868738.1.2.3.4 conn=wye Kv=0.2200 Kva=112.5 %R=0.500
New Transformer.2783257 phases=3 windings=2 Xhl=1.200
~ wdg=1 bus=16102-10868883.1.2.3 conn=delta Kv=13.8 Kva=75.0 %R=0.500
~ wdg=2 bus=2783257-10868883v.1.2.3.4 conn=wye Kv=0.2200 Kva=75.0 %R=0.500
New Transformer.2783306 phases=3 windings=2 Xhl=1.200
~ wdg=1 bus=16102-10868884.1.2.3 conn=delta Kv=13.8 Kva=75.0 %R=0.500
~ wdg=2 bus=2783306-10868884v.1.2.3.4 conn=wye Kv=0.2200 Kva=75.0 %R=0.500
New Transformer.3097745 phases=3 windings=2 Xhl=1.200
~ wdg=1 bus=16102-10869155.1.2.3 conn=delta Kv=13.8 Kva=112.5 %R=0.500
~ wdg=2 bus=3097745-10869156.1.2.3.4 conn=wye Kv=0.2200 Kva=112.5 %R=0.500
New Transformer.3089267 phases=3 windings=2 Xhl=1.200
~ wdg=1 bus=16102-10869157.1.2.3 conn=delta Kv=13.8 Kva=75.0 %R=0.500
~ wdg=2 bus=3089267-10869158.1.2.3.4 conn=wye Kv=0.2200 Kva=75.0 %R=0.500
New Transformer.2955421 phases=3 windings=2 Xhl=1.200
~ wdg=1 bus=16102-10869343.1.2.3 conn=delta Kv=13.8 Kva=150.0 %R=0.500
~ wdg=2 bus=2955421-10869343v.1.2.3.4 conn=wye Kv=0.2200 Kva=150.0 %R=0.500
New Transformer.3135237 phases=3 windings=2 Xhl=1.200
~ wdg=1 bus=16102-10869499.1.2.3 conn=delta Kv=13.8 Kva=112.5 %R=0.500
~ wdg=2 bus=3135237-10869500.1.2.3.4 conn=wye Kv=0.2200 Kva=112.5 %R=0.500
New Transformer.2783255 phases=3 windings=2 Xhl=1.200
~ wdg=1 bus=16102-10869626.1.2.3 conn=delta Kv=13.8 Kva=75.0 %R=0.500
~ wdg=2 bus=2783255-10869626v.1.2.3.4 conn=wye Kv=0.2200 Kva=75.0 %R=0.500
New Transformer.3202970 phases=3 windings=2 Xhl=1.200
~ wdg=1 bus=16102-10869627.1.2.3 conn=delta Kv=13.8 Kva=75.0 %R=0.500
~ wdg=2 bus=3202970-10869628.1.2.3.4 conn=wye Kv=0.2200 Kva=75.0 %R=0.500
New Transformer.2783360 phases=3 windings=2 Xhl=1.200
~ wdg=1 bus=16102-10869759.1.2.3 conn=delta Kv=13.8 Kva=112.5 %R=0.500
~ wdg=2 bus=2783360-10869760.1.2.3.4 conn=wye Kv=0.2200 Kva=112.5 %R=0.500
New Transformer.3098120 phases=3 windings=2 Xhl=1.200
~ wdg=1 bus=16102-10869894.1.2.3 conn=delta Kv=13.8 Kva=45.0 %R=0.500
~ wdg=2 bus=3098120-10869895.1.2.3.4 conn=wye Kv=0.2200 Kva=45.0 %R=0.500
New Transformer.3098101 phases=3 windings=2 Xhl=1.200
~ wdg=1 bus=16102-10869896.1.2.3 conn=delta Kv=13.8 Kva=75.0 %R=0.500
~ wdg=2 bus=3098101-12338182.1.2.3.4 conn=wye Kv=0.2200 Kva=75.0 %R=0.500
New Transformer.2783263 phases=3 windings=2 Xhl=1.200
~ wdg=1 bus=16102-10869904.1.2.3 conn=delta Kv=13.8 Kva=75.0 %R=0.500
~ wdg=2 bus=2783263-10869904v.1.2.3.4 conn=wye Kv=0.2200 Kva=75.0 %R=0.500
New Transformer.3097979 phases=3 windings=2 Xhl=1.200
~ wdg=1 bus=16102-10870171.1.2.3 conn=delta Kv=13.8 Kva=75.0 %R=0.500
~ wdg=2 bus=3097979-10870172.1.2.3.4 conn=wye Kv=0.2200 Kva=75.0 %R=0.500
New Transformer.3098125 phases=3 windings=2 Xhl=1.200
~ wdg=1 bus=16102-10870520.1.2.3 conn=delta Kv=13.8 Kva=45.0 %R=0.500
~ wdg=2 bus=3098125-10870521.1.2.3.4 conn=wye Kv=0.2200 Kva=45.0 %R=0.500
New Transformer.3097767 phases=3 windings=2 Xhl=1.200
~ wdg=1 bus=16102-10870542.1.2.3 conn=delta Kv=13.8 Kva=75.0 %R=0.500
~ wdg=2 bus=3097767-10870543.1.2.3.4 conn=wye Kv=0.2200 Kva=75.0 %R=0.500
New Transformer.3098104 phases=3 windings=2 Xhl=1.200
~ wdg=1 bus=16102-10870556.1.2.3 conn=delta Kv=13.8 Kva=45.0 %R=0.500
~ wdg=2 bus=3098104-10870557.1.2.3.4 conn=wye Kv=0.2200 Kva=45.0 %R=0.500
New Transformer.2783348 phases=3 windings=2 Xhl=1.200
~ wdg=1 bus=16102-10870568.1.2.3 conn=delta Kv=13.8 Kva=45.0 %R=0.500
~ wdg=2 bus=2783348-10870568v.1.2.3.4 conn=wye Kv=0.2200 Kva=45.0 %R=0.500
New Transformer.2783320 phases=3 windings=2 Xhl=1.200
~ wdg=1 bus=16102-10870611.1.2.3 conn=delta Kv=13.8 Kva=75.0 %R=0.500
~ wdg=2 bus=2783320-10870612.1.2.3.4 conn=wye Kv=0.2200 Kva=75.0 %R=0.500
New Transformer.2783417 phases=3 windings=2 Xhl=1.200
~ wdg=1 bus=16102-10870702.1.2.3 conn=delta Kv=13.8 Kva=75.0 %R=0.500
~ wdg=2 bus=2783417-10870703.1.2.3.4 conn=wye Kv=0.2200 Kva=75.0 %R=0.500
New Transformer.2783502 phases=3 windings=2 Xhl=1.200
~ wdg=1 bus=16102-10870862.1.2.3 conn=delta Kv=13.8 Kva=150.0 %R=0.500
~ wdg=2 bus=2783502-10870863.1.2.3.4 conn=wye Kv=0.2200 Kva=150.0 %R=0.500
New Transformer.3097882 phases=3 windings=2 Xhl=1.200
~ wdg=1 bus=16102-10870883.1.2.3 conn=delta Kv=13.8 Kva=75.0 %R=0.500
~ wdg=2 bus=3097882-10870884.1.2.3.4 conn=wye Kv=0.2200 Kva=75.0 %R=0.500
New Transformer.3148862 phases=3 windings=2 Xhl=1.200
~ wdg=1 bus=16102-10871001.1.2.3 conn=delta Kv=13.8 Kva=75.0 %R=0.500
~ wdg=2 bus=3148862-10871002.1.2.3.4 conn=wye Kv=0.2200 Kva=75.0 %R=0.500
New Transformer.2902978 phases=3 windings=2 Xhl=1.200
~ wdg=1 bus=16102-11382812.1.2.3 conn=delta Kv=13.8 Kva=112.5 %R=0.500
~ wdg=2 bus=2902978-10870005.1.2.3.4 conn=wye Kv=0.2200 Kva=112.5 %R=0.500
New Transformer.3098379 phases=3 windings=2 Xhl=1.200
~ wdg=1 bus=16102-12282740.1.2.3 conn=delta Kv=13.8 Kva=45.0 %R=0.500
~ wdg=2 bus=3098379-12339208.1.2.3.4 conn=wye Kv=0.2200 Kva=45.0 %R=0.500
New Transformer.3097746 phases=3 windings=2 Xhl=1.200
~ wdg=1 bus=16102-12336265.1.2.3 conn=delta Kv=13.8 Kva=75.0 %R=0.500
~ wdg=2 bus=3097746-10868990.1.2.3.4 conn=wye Kv=0.2200 Kva=75.0 %R=0.500
New Transformer.3097754 phases=3 windings=2 Xhl=1.200
~ wdg=1 bus=16102-12336319.1.2.3 conn=delta Kv=13.8 Kva=112.5 %R=0.500
~ wdg=2 bus=3097754-10869954.1.2.3.4 conn=wye Kv=0.2200 Kva=112.5 %R=0.500
New Transformer.3097753 phases=3 windings=2 Xhl=1.200
~ wdg=1 bus=16102-12336325.1.2.3 conn=delta Kv=13.8 Kva=75.0 %R=0.500
~ wdg=2 bus=3097753-10868979.1.2.3.4 conn=wye Kv=0.2200 Kva=75.0 %R=0.500
New Transformer.3098129 phases=3 windings=2 Xhl=1.200
~ wdg=1 bus=16102-12336348.1.2.3 conn=delta Kv=13.8 Kva=75.0 %R=0.500
~ wdg=2 bus=3098129-12338334.1.2.3.4 conn=wye Kv=0.2200 Kva=75.0 %R=0.500
New Transformer.3097761 phases=3 windings=2 Xhl=1.200
~ wdg=1 bus=16102-12336364.1.2.3 conn=delta Kv=13.8 Kva=45.0 %R=0.500
~ wdg=2 bus=3097761-12336365.1.2.3.4 conn=wye Kv=0.2200 Kva=45.0 %R=0.500
New Transformer.3097765 phases=3 windings=2 Xhl=1.200
~ wdg=1 bus=16102-12336378.1.2.3 conn=delta Kv=13.8 Kva=45.0 %R=0.500
~ wdg=2 bus=3097765-12336379.1.2.3.4 conn=wye Kv=0.2200 Kva=45.0 %R=0.500
New Transformer.3098130 phases=3 windings=2 Xhl=1.200
~ wdg=1 bus=16102-12336391.1.2.3 conn=delta Kv=13.8 Kva=45.0 %R=0.500
~ wdg=2 bus=3098130-12338345.1.2.3.4 conn=wye Kv=0.2200 Kva=45.0 %R=0.500
New Transformer.3097768 phases=3 windings=2 Xhl=1.200
~ wdg=1 bus=16102-12336411.1.2.3 conn=delta Kv=13.8 Kva=45.0 %R=0.500
~ wdg=2 bus=3097768-10871099.1.2.3.4 conn=wye Kv=0.2200 Kva=45.0 %R=0.500
New Transformer.2783471 phases=3 windings=2 Xhl=1.200
~ wdg=1 bus=16102-12336417.1.2.3 conn=delta Kv=13.8 Kva=112.5 %R=0.500
~ wdg=2 bus=2783471-12336418.1.2.3.4 conn=wye Kv=0.2200 Kva=112.5 %R=0.500
New Transformer.3097783 phases=3 windings=2 Xhl=1.200
~ wdg=1 bus=16102-12336444.1.2.3 conn=delta Kv=13.8 Kva=45.0 %R=0.500
~ wdg=2 bus=3097783-10868575.1.2.3.4 conn=wye Kv=0.2200 Kva=45.0 %R=0.500
New Transformer.2783366 phases=3 windings=2 Xhl=1.200
~ wdg=1 bus=16102-12336447.1.2.3 conn=delta Kv=13.8 Kva=112.5 %R=0.500
~ wdg=2 bus=2783366-12336447v.1.2.3.4 conn=wye Kv=0.2200 Kva=112.5 %R=0.500
New Transformer.2783319 phases=3 windings=2 Xhl=1.200
~ wdg=1 bus=16102-12336475.1.2.3 conn=delta Kv=13.8 Kva=112.5 %R=0.500
~ wdg=2 bus=2783319-12336487.1.2.3.4 conn=wye Kv=0.2200 Kva=112.5 %R=0.500
New Transformer.3097786 phases=3 windings=2 Xhl=1.200
~ wdg=1 bus=16102-12336494.1.2.3 conn=delta Kv=13.8 Kva=75.0 %R=0.500
~ wdg=2 bus=3097786-12336501.1.2.3.4 conn=wye Kv=0.2200 Kva=75.0 %R=0.500
New Transformer.3097788 phases=3 windings=2 Xhl=1.200
~ wdg=1 bus=16102-12336536.1.2.3 conn=delta Kv=13.8 Kva=75.0 %R=0.500
~ wdg=2 bus=3097788-10871060.1.2.3.4 conn=wye Kv=0.2200 Kva=75.0 %R=0.500
New Transformer.3097807 phases=3 windings=2 Xhl=1.200
~ wdg=1 bus=16102-12336584.1.2.3 conn=delta Kv=13.8 Kva=75.0 %R=0.500
~ wdg=2 bus=3097807-12336585.1.2.3.4 conn=wye Kv=0.2200 Kva=75.0 %R=0.500
New Transformer.3097834 phases=3 windings=2 Xhl=1.200
~ wdg=1 bus=16102-12336700.1.2.3 conn=delta Kv=13.8 Kva=75.0 %R=0.500
~ wdg=2 bus=3097834-10870794.1.2.3.4 conn=wye Kv=0.2200 Kva=75.0 %R=0.500
New Transformer.3097839 phases=3 windings=2 Xhl=1.200
~ wdg=1 bus=16102-12336710.1.2.3 conn=delta Kv=13.8 Kva=45.0 %R=0.500
~ wdg=2 bus=3097839-10869396.1.2.3.4 conn=wye Kv=0.2200 Kva=45.0 %R=0.500
New Transformer.3097875 phases=3 windings=2 Xhl=1.200
~ wdg=1 bus=16102-12336857.1.2.3 conn=delta Kv=13.8 Kva=75.0 %R=0.500
~ wdg=2 bus=3097875-10869394.1.2.3.4 conn=wye Kv=0.2200 Kva=75.0 %R=0.500
New Transformer.3097889 phases=3 windings=2 Xhl=1.200
~ wdg=1 bus=16102-12336887.1.2.3 conn=delta Kv=13.8 Kva=75.0 %R=0.500
~ wdg=2 bus=3097889-10870461.1.2.3.4 conn=wye Kv=0.2200 Kva=75.0 %R=0.500
New Transformer.3097936 phases=3 windings=2 Xhl=1.200
~ wdg=1 bus=16102-12336989.1.2.3 conn=delta Kv=13.8 Kva=75.0 %R=0.500
~ wdg=2 bus=3097936-12336982.1.2.3.4 conn=wye Kv=0.2200 Kva=75.0 %R=0.500
New Transformer.3097945 phases=3 windings=2 Xhl=1.200
~ wdg=1 bus=16102-12337023.1.2.3 conn=delta Kv=13.8 Kva=45.0 %R=0.500
~ wdg=2 bus=3097945-12337026.1.2.3.4 conn=wye Kv=0.2200 Kva=45.0 %R=0.500
New Transformer.3097950 phases=3 windings=2 Xhl=1.200
~ wdg=1 bus=16102-12337043.1.2.3 conn=delta Kv=13.8 Kva=45.0 %R=0.500
~ wdg=2 bus=3097950-12337056.1.2.3.4 conn=wye Kv=0.2200 Kva=45.0 %R=0.500
New Transformer.3097972 phases=3 windings=2 Xhl=1.200
~ wdg=1 bus=16102-12337193.1.2.3 conn=delta Kv=13.8 Kva=75.0 %R=0.500
~ wdg=2 bus=3097972-12337067.1.2.3.4 conn=wye Kv=0.2200 Kva=75.0 %R=0.500
New Transformer.3097977 phases=3 windings=2 Xhl=1.200
~ wdg=1 bus=16102-12337198.1.2.3 conn=delta Kv=13.8 Kva=45.0 %R=0.500
~ wdg=2 bus=3097977-12337198v.1.2.3.4 conn=wye Kv=0.2200 Kva=45.0 %R=0.500
New Transformer.3097980 phases=3 windings=2 Xhl=1.200
~ wdg=1 bus=16102-12337210.1.2.3 conn=delta Kv=13.8 Kva=45.0 %R=0.500
~ wdg=2 bus=3097980-10869966.1.2.3.4 conn=wye Kv=0.2200 Kva=45.0 %R=0.500
New Transformer.3180163 phases=3 windings=2 Xhl=1.200
~ wdg=1 bus=16102-12338173.1.2.3 conn=delta Kv=13.8 Kva=75.0 %R=0.500
~ wdg=2 bus=3180163-12338173v.1.2.3.4 conn=wye Kv=0.2200 Kva=75.0 %R=0.500
New Transformer.3098092 phases=3 windings=2 Xhl=1.200
~ wdg=1 bus=16102-12338174.1.2.3 conn=delta Kv=13.8 Kva=75.0 %R=0.500
~ wdg=2 bus=3098092-10871054.1.2.3.4 conn=wye Kv=0.2200 Kva=75.0 %R=0.500
New Transformer.3098103 phases=3 windings=2 Xhl=1.200
~ wdg=1 bus=16102-12338185.1.2.3 conn=delta Kv=13.8 Kva=75.0 %R=0.500
~ wdg=2 bus=3098103-10869656.1.2.3.4 conn=wye Kv=0.2200 Kva=75.0 %R=0.500
New Transformer.3098116 phases=3 windings=2 Xhl=1.200
~ wdg=1 bus=16102-12338257.1.2.3 conn=delta Kv=13.8 Kva=75.0 %R=0.500
~ wdg=2 bus=3098116-10868983.1.2.3.4 conn=wye Kv=0.2200 Kva=75.0 %R=0.500
New Transformer.3098117 phases=3 windings=2 Xhl=1.200
~ wdg=1 bus=16102-12338258.1.2.3 conn=delta Kv=13.8 Kva=75.0 %R=0.500
~ wdg=2 bus=3098117-10868917.1.2.3.4 conn=wye Kv=0.2200 Kva=75.0 %R=0.500
New Transformer.3098142 phases=3 windings=2 Xhl=1.200
~ wdg=1 bus=16102-12338363.1.2.3 conn=delta Kv=13.8 Kva=75.0 %R=0.500
~ wdg=2 bus=3098142-12338367.1.2.3.4 conn=wye Kv=0.2200 Kva=75.0 %R=0.500
New Transformer.3098143 phases=3 windings=2 Xhl=1.200
~ wdg=1 bus=16102-12338411.1.2.3 conn=delta Kv=13.8 Kva=75.0 %R=0.500
~ wdg=2 bus=3098143-10868551.1.2.3.4 conn=wye Kv=0.2200 Kva=75.0 %R=0.500
New Transformer.3098317 phases=3 windings=2 Xhl=1.200
~ wdg=1 bus=16102-12338977.1.2.3 conn=delta Kv=13.8 Kva=45.0 %R=0.500
~ wdg=2 bus=3098317-10869697.1.2.3.4 conn=wye Kv=0.2200 Kva=45.0 %R=0.500
New Transformer.3098320 phases=3 windings=2 Xhl=1.200
~ wdg=1 bus=16102-12339001.1.2.3 conn=delta Kv=13.8 Kva=45.0 %R=0.500
~ wdg=2 bus=3098320-10869414.1.2.3.4 conn=wye Kv=0.2200 Kva=45.0 %R=0.500
New Transformer.3098338 phases=3 windings=2 Xhl=1.200
~ wdg=1 bus=16102-12339039.1.2.3 conn=delta Kv=13.8 Kva=45.0 %R=0.500
~ wdg=2 bus=3098338-10869431.1.2.3.4 conn=wye Kv=0.2200 Kva=45.0 %R=0.500
New Transformer.3098344 phases=3 windings=2 Xhl=1.200
~ wdg=1 bus=16102-12339058.1.2.3 conn=delta Kv=13.8 Kva=45.0 %R=0.500
~ wdg=2 bus=3098344-10869417.1.2.3.4 conn=wye Kv=0.2200 Kva=45.0 %R=0.500
New Transformer.3098367 phases=3 windings=2 Xhl=1.200
~ wdg=1 bus=16102-12339149.1.2.3 conn=delta Kv=13.8 Kva=45.0 %R=0.500
~ wdg=2 bus=3098367-10869418.1.2.3.4 conn=wye Kv=0.2200 Kva=45.0 %R=0.500
New Transformer.3098396 phases=3 windings=2 Xhl=1.200
~ wdg=1 bus=16102-12339235.1.2.3 conn=delta Kv=13.8 Kva=75.0 %R=0.500
~ wdg=2 bus=3098396-10870439.1.2.3.4 conn=wye Kv=0.2200 Kva=75.0 %R=0.500
New Transformer.3098413 phases=3 windings=2 Xhl=1.200
~ wdg=1 bus=16102-12339245.1.2.3 conn=delta Kv=13.8 Kva=45.0 %R=0.500
~ wdg=2 bus=3098413-10868614.1.2.3.4 conn=wye Kv=0.2200 Kva=45.0 %R=0.500
New Transformer.3098419 phases=3 windings=2 Xhl=1.200
~ wdg=1 bus=16102-12339284.1.2.3 conn=delta Kv=13.8 Kva=45.0 %R=0.500
~ wdg=2 bus=3098419-10870298.1.2.3.4 conn=wye Kv=0.2200 Kva=45.0 %R=0.500
New Transformer.2783433 phases=3 windings=2 Xhl=1.200
~ wdg=1 bus=16102-12339331.1.2.3 conn=delta Kv=13.8 Kva=75.0 %R=0.500
~ wdg=2 bus=2783433-10869372.1.2.3.4 conn=wye Kv=0.2200 Kva=75.0 %R=0.500
New Transformer.3098446 phases=3 windings=2 Xhl=1.200
~ wdg=1 bus=16102-12339355.1.2.3 conn=delta Kv=13.8 Kva=45.0 %R=0.500
~ wdg=2 bus=3098446-10870062.1.2.3.4 conn=wye Kv=0.2200 Kva=45.0 %R=0.500
New Transformer.3088978 phases=3 windings=2 Xhl=1.200
~ wdg=1 bus=16102-12339366.1.2.3 conn=delta Kv=13.8 Kva=75.0 %R=0.500
~ wdg=2 bus=3088978-12339366v.1.2.3.4 conn=wye Kv=0.2200 Kva=75.0 %R=0.500
New Transformer.3098455 phases=3 windings=2 Xhl=1.200
~ wdg=1 bus=16102-12339385.1.2.3 conn=delta Kv=13.8 Kva=75.0 %R=0.500
~ wdg=2 bus=3098455-10870409.1.2.3.4 conn=wye Kv=0.2200 Kva=75.0 %R=0.500
New Transformer.3098461 phases=3 windings=2 Xhl=1.200
~ wdg=1 bus=16102-12339428.1.2.3 conn=delta Kv=13.8 Kva=45.0 %R=0.500
~ wdg=2 bus=3098461-12339430.1.2.3.4 conn=wye Kv=0.2200 Kva=45.0 %R=0.500
New Transformer.3098462 phases=3 windings=2 Xhl=1.200
~ wdg=1 bus=16102-12339435.1.2.3 conn=delta Kv=13.8 Kva=45.0 %R=0.500
~ wdg=2 bus=3098462-12339441.1.2.3.4 conn=wye Kv=0.2200 Kva=45.0 %R=0.500
New Transformer.3098480 phases=3 windings=2 Xhl=1.200
~ wdg=1 bus=16102-12339537.1.2.3 conn=delta Kv=13.8 Kva=75.0 %R=0.500
~ wdg=2 bus=3098480-12339538.1.2.3.4 conn=wye Kv=0.2200 Kva=75.0 %R=0.500
New Transformer.2783280 phases=3 windings=2 Xhl=1.200
~ wdg=1 bus=16102-12568478.1.2.3 conn=delta Kv=13.8 Kva=75.0 %R=0.500
~ wdg=2 bus=2783280-12568483.1.2.3.4 conn=wye Kv=0.2200 Kva=75.0 %R=0.500
New Transformer.3137374 phases=3 windings=2 Xhl=1.200
~ wdg=1 bus=16102-12580969.1.2.3 conn=delta Kv=13.8 Kva=225.0 %R=0.500
~ wdg=2 bus=3137374-12580969v.1.2.3.4 conn=wye Kv=0.2200 Kva=225.0 %R=0.500
New Transformer.3138771 phases=3 windings=2 Xhl=1.200
~ wdg=1 bus=16102-12590702.1.2.3 conn=delta Kv=13.8 Kva=1225.0 %R=0.500
~ wdg=2 bus=3138771-12590702v.1.2.3.4 conn=wye Kv=0.2200 Kva=1225.0 %R=0.500
New Transformer.3169416 phases=3 windings=2 Xhl=1.200
~ wdg=1 bus=16102-12803090.1.2.3 conn=delta Kv=13.8 Kva=45.0 %R=0.500
~ wdg=2 bus=3169416-12803090v.1.2.3.4 conn=wye Kv=0.2200 Kva=45.0 %R=0.500
New Transformer.3176573 phases=3 windings=2 Xhl=1.200
~ wdg=1 bus=16102-12867460.1.2.3 conn=delta Kv=13.8 Kva=45.0 %R=0.500
~ wdg=2 bus=3176573-12867467.1.2.3.4 conn=wye Kv=0.2200 Kva=45.0 %R=0.500
New Transformer.3205884 phases=3 windings=2 Xhl=1.200
~ wdg=1 bus=16102-12867461.1.2.3 conn=delta Kv=13.8 Kva=75.0 %R=0.500
~ wdg=2 bus=3205884-12867461v.1.2.3.4 conn=wye Kv=0.2200 Kva=75.0 %R=0.500
New Transformer.3179353 phases=3 windings=2 Xhl=1.200
~ wdg=1 bus=16102-12882132.1.2.3 conn=delta Kv=13.8 Kva=75.0 %R=0.500
~ wdg=2 bus=3179353-12882132v.1.2.3.4 conn=wye Kv=0.2200 Kva=75.0 %R=0.500
New Transformer.3184910 phases=3 windings=2 Xhl=1.200
~ wdg=1 bus=16102-12928857.1.2.3 conn=delta Kv=13.8 Kva=45.0 %R=0.500
~ wdg=2 bus=3184910-12928857v.1.2.3.4 conn=wye Kv=0.2200 Kva=45.0 %R=0.500
New Transformer.3188802 phases=3 windings=2 Xhl=1.200
~ wdg=1 bus=16102-12973452.1.2.3 conn=delta Kv=13.8 Kva=75.0 %R=0.500
~ wdg=2 bus=3188802-12973443.1.2.3.4 conn=wye Kv=0.2200 Kva=75.0 %R=0.500
New Transformer.3097647 phases=3 windings=2 Xhl=1.200
~ wdg=1 bus=16107-10868763.1.2.3 conn=delta Kv=13.8 Kva=75.0 %R=0.500
~ wdg=2 bus=3097647-10888068.1.2.3.4 conn=wye Kv=0.2200 Kva=75.0 %R=0.500
New Transformer.2783331 phases=3 windings=2 Xhl=1.200
~ wdg=1 bus=16107-10868793.1.2.3 conn=delta Kv=13.8 Kva=112.5 %R=0.500
~ wdg=2 bus=2783331-10868794.1.2.3.4 conn=wye Kv=0.2200 Kva=112.5 %R=0.500
New Transformer.3097474 phases=3 windings=2 Xhl=1.200
~ wdg=1 bus=16107-10868805.1.2.3 conn=delta Kv=13.8 Kva=112.5 %R=0.500
~ wdg=2 bus=3097474-12335640.1.2.3.4 conn=wye Kv=0.2200 Kva=112.5 %R=0.500
New Transformer.2783472 phases=3 windings=2 Xhl=1.200
~ wdg=1 bus=16107-10869167.1.2.3 conn=delta Kv=13.8 Kva=112.5 %R=0.500
~ wdg=2 bus=2783472-10869168.1.2.3.4 conn=wye Kv=0.2200 Kva=112.5 %R=0.500
New Transformer.2783330 phases=3 windings=2 Xhl=1.200
~ wdg=1 bus=16107-10870258.1.2.3 conn=delta Kv=13.8 Kva=75.0 %R=0.500
~ wdg=2 bus=2783330-10870258v.1.2.3.4 conn=wye Kv=0.2200 Kva=75.0 %R=0.500
New Transformer.2785604 phases=3 windings=2 Xhl=1.200
~ wdg=1 bus=16107-10888099.1.2.3 conn=delta Kv=13.8 Kva=45.0 %R=0.500
~ wdg=2 bus=2785604-10888100.1.2.3.4 conn=wye Kv=0.2200 Kva=45.0 %R=0.500
New Transformer.3135109 phases=3 windings=2 Xhl=1.200
~ wdg=1 bus=16107-10888119.1.2.3 conn=delta Kv=13.8 Kva=75.0 %R=0.500
~ wdg=2 bus=3135109-10888120.1.2.3.4 conn=wye Kv=0.2200 Kva=75.0 %R=0.500
New Transformer.2785713 phases=3 windings=2 Xhl=1.200
~ wdg=1 bus=16107-10888167.1.2.3 conn=delta Kv=13.8 Kva=112.5 %R=0.500
~ wdg=2 bus=2785713-10888168.1.2.3.4 conn=wye Kv=0.2200 Kva=112.5 %R=0.500
New Transformer.2785631 phases=3 windings=2 Xhl=1.200
~ wdg=1 bus=16107-10888265.1.2.3 conn=delta Kv=13.8 Kva=75.0 %R=0.500
~ wdg=2 bus=2785631-10888265v.1.2.3.4 conn=wye Kv=0.2200 Kva=75.0 %R=0.500
New Transformer.2785674 phases=3 windings=2 Xhl=1.200
~ wdg=1 bus=16107-10888267.1.2.3 conn=delta Kv=13.8 Kva=112.5 %R=0.500
~ wdg=2 bus=2785674-10888267v.1.2.3.4 conn=wye Kv=0.2200 Kva=112.5 %R=0.500
New Transformer.3135513 phases=3 windings=2 Xhl=1.200
~ wdg=1 bus=16107-10888300.1.2.3 conn=delta Kv=13.8 Kva=75.0 %R=0.500
~ wdg=2 bus=3135513-10888301.1.2.3.4 conn=wye Kv=0.2200 Kva=75.0 %R=0.500
New Transformer.3097646 phases=3 windings=2 Xhl=1.200
~ wdg=1 bus=16107-10888306.1.2.3 conn=delta Kv=13.8 Kva=75.0 %R=0.500
~ wdg=2 bus=3097646-10888307.1.2.3.4 conn=wye Kv=0.2200 Kva=75.0 %R=0.500
New Transformer.3194711 phases=3 windings=2 Xhl=1.200
~ wdg=1 bus=16107-10888308.1.2.3 conn=delta Kv=13.8 Kva=75.0 %R=0.500
~ wdg=2 bus=3194711-10888309.1.2.3.4 conn=wye Kv=0.2200 Kva=75.0 %R=0.500
New Transformer.3108137 phases=3 windings=2 Xhl=1.200
~ wdg=1 bus=16107-10888334.1.2.3 conn=delta Kv=13.8 Kva=75.0 %R=0.500
~ wdg=2 bus=3108137-10888335.1.2.3.4 conn=wye Kv=0.2200 Kva=75.0 %R=0.500
New Transformer.2785644 phases=3 windings=2 Xhl=1.200
~ wdg=1 bus=16107-10888364.1.2.3 conn=delta Kv=13.8 Kva=30.0 %R=0.500
~ wdg=2 bus=2785644-10888364v.1.2.3.4 conn=wye Kv=0.2200 Kva=30.0 %R=0.500
New Transformer.3180257 phases=3 windings=2 Xhl=1.200
~ wdg=1 bus=16107-10888478.1.2.3 conn=delta Kv=13.8 Kva=75.0 %R=0.500
~ wdg=2 bus=3180257-10888478v.1.2.3.4 conn=wye Kv=0.2200 Kva=75.0 %R=0.500
New Transformer.3108023 phases=3 windings=2 Xhl=1.200
~ wdg=1 bus=16107-10888488.1.2.3 conn=delta Kv=13.8 Kva=75.0 %R=0.500
~ wdg=2 bus=3108023-10888489.1.2.3.4 conn=wye Kv=0.2200 Kva=75.0 %R=0.500
New Transformer.3135520 phases=3 windings=2 Xhl=1.200
~ wdg=1 bus=16107-10888500.1.2.3 conn=delta Kv=13.8 Kva=112.5 %R=0.500
~ wdg=2 bus=3135520-10888501.1.2.3.4 conn=wye Kv=0.2200 Kva=112.5 %R=0.500
New Transformer.3135710 phases=3 windings=2 Xhl=1.200
~ wdg=1 bus=16107-10888512.1.2.3 conn=delta Kv=13.8 Kva=75.0 %R=0.500
~ wdg=2 bus=3135710-10888513.1.2.3.4 conn=wye Kv=0.2200 Kva=75.0 %R=0.500
New Transformer.2785694 phases=3 windings=2 Xhl=1.200
~ wdg=1 bus=16107-10888547.1.2.3 conn=delta Kv=13.8 Kva=112.5 %R=0.500
~ wdg=2 bus=2785694-10888547v.1.2.3.4 conn=wye Kv=0.2200 Kva=112.5 %R=0.500
New Transformer.2952935 phases=3 windings=2 Xhl=1.200
~ wdg=1 bus=16107-10888657.1.2.3 conn=delta Kv=13.8 Kva=75.0 %R=0.500
~ wdg=2 bus=2952935-10888658.1.2.3.4 conn=wye Kv=0.2200 Kva=75.0 %R=0.500
New Transformer.2937878 phases=3 windings=2 Xhl=1.200
~ wdg=1 bus=16107-10888661.1.2.3 conn=delta Kv=13.8 Kva=45.0 %R=0.500
~ wdg=2 bus=2937878-10888662.1.2.3.4 conn=wye Kv=0.2200 Kva=45.0 %R=0.500
New Transformer.3135515 phases=3 windings=2 Xhl=1.200
~ wdg=1 bus=16107-10888665.1.2.3 conn=delta Kv=13.8 Kva=45.0 %R=0.500
~ wdg=2 bus=3135515-10888666.1.2.3.4 conn=wye Kv=0.2200 Kva=45.0 %R=0.500
New Transformer.3097649 phases=3 windings=2 Xhl=1.200
~ wdg=1 bus=16107-10888687.1.2.3 conn=delta Kv=13.8 Kva=75.0 %R=0.500
~ wdg=2 bus=3097649-10888688.1.2.3.4 conn=wye Kv=0.2200 Kva=75.0 %R=0.500
New Transformer.3017273 phases=3 windings=2 Xhl=1.200
~ wdg=1 bus=16107-10888745.1.2.3 conn=delta Kv=13.8 Kva=112.5 %R=0.500
~ wdg=2 bus=3017273-10888746.1.2.3.4 conn=wye Kv=0.2200 Kva=112.5 %R=0.500
New Transformer.3135027 phases=3 windings=2 Xhl=1.200
~ wdg=1 bus=16107-10888864.1.2.3 conn=delta Kv=13.8 Kva=45.0 %R=0.500
~ wdg=2 bus=3135027-10888865.1.2.3.4 conn=wye Kv=0.2200 Kva=45.0 %R=0.500
New Transformer.2859088 phases=3 windings=2 Xhl=1.200
~ wdg=1 bus=16107-10888883.1.2.3 conn=delta Kv=13.8 Kva=45.0 %R=0.500
~ wdg=2 bus=2859088-10888884.1.2.3.4 conn=wye Kv=0.2200 Kva=45.0 %R=0.500
New Transformer.2785594 phases=3 windings=2 Xhl=1.200
~ wdg=1 bus=16107-10888897.1.2.3 conn=delta Kv=13.8 Kva=112.5 %R=0.500
~ wdg=2 bus=2785594-10888898.1.2.3.4 conn=wye Kv=0.2200 Kva=112.5 %R=0.500
New Transformer.2785653 phases=3 windings=2 Xhl=1.200
~ wdg=1 bus=16107-10888933.1.2.3 conn=delta Kv=13.8 Kva=75.0 %R=0.500
~ wdg=2 bus=2785653-10888934.1.2.3.4 conn=wye Kv=0.2200 Kva=75.0 %R=0.500
New Transformer.2785619 phases=3 windings=2 Xhl=1.200
~ wdg=1 bus=16107-10888942.1.2.3 conn=delta Kv=13.8 Kva=112.5 %R=0.500
~ wdg=2 bus=2785619-10888942v.1.2.3.4 conn=wye Kv=0.2200 Kva=112.5 %R=0.500
New Transformer.3097651 phases=3 windings=2 Xhl=1.200
~ wdg=1 bus=16107-10889030.1.2.3 conn=delta Kv=13.8 Kva=75.0 %R=0.500
~ wdg=2 bus=3097651-10889031.1.2.3.4 conn=wye Kv=0.2200 Kva=75.0 %R=0.500
New Transformer.2785729 phases=3 windings=2 Xhl=1.200
~ wdg=1 bus=16107-10889032.1.2.3 conn=delta Kv=13.8 Kva=45.0 %R=0.500
~ wdg=2 bus=2785729-10889033.1.2.3.4 conn=wye Kv=0.2200 Kva=45.0 %R=0.500
New Transformer.3214675 phases=3 windings=2 Xhl=1.200
~ wdg=1 bus=16107-10889054.1.2.3 conn=delta Kv=13.8 Kva=75.0 %R=0.500
~ wdg=2 bus=3214675-10889054v.1.2.3.4 conn=wye Kv=0.2200 Kva=75.0 %R=0.500
New Transformer.3098475 phases=3 windings=2 Xhl=1.200
~ wdg=1 bus=16107-10889056.1.2.3 conn=delta Kv=13.8 Kva=75.0 %R=0.500
~ wdg=2 bus=3098475-10889057.1.2.3.4 conn=wye Kv=0.2200 Kva=75.0 %R=0.500
New Transformer.3097267 phases=3 windings=2 Xhl=1.200
~ wdg=1 bus=16107-10889060.1.2.3 conn=delta Kv=13.8 Kva=75.0 %R=0.500
~ wdg=2 bus=3097267-12333969.1.2.3.4 conn=wye Kv=0.2200 Kva=75.0 %R=0.500
New Transformer.3110566 phases=3 windings=2 Xhl=1.200
~ wdg=1 bus=16107-10889067.1.2.3 conn=delta Kv=13.8 Kva=75.0 %R=0.500
~ wdg=2 bus=3110566-10889068.1.2.3.4 conn=wye Kv=0.2200 Kva=75.0 %R=0.500
New Transformer.3135523 phases=3 windings=2 Xhl=1.200
~ wdg=1 bus=16107-10889071.1.2.3 conn=delta Kv=13.8 Kva=45.0 %R=0.500
~ wdg=2 bus=3135523-10889072.1.2.3.4 conn=wye Kv=0.2200 Kva=45.0 %R=0.500
New Transformer.2785616 phases=3 windings=2 Xhl=1.200
~ wdg=1 bus=16107-10889102.1.2.3 conn=delta Kv=13.8 Kva=45.0 %R=0.500
~ wdg=2 bus=2785616-10889103.1.2.3.4 conn=wye Kv=0.2200 Kva=45.0 %R=0.500
New Transformer.2785676 phases=3 windings=2 Xhl=1.200
~ wdg=1 bus=16107-10889117.1.2.3 conn=delta Kv=13.8 Kva=45.0 %R=0.500
~ wdg=2 bus=2785676-10889118.1.2.3.4 conn=wye Kv=0.2200 Kva=45.0 %R=0.500
New Transformer.2785746 phases=3 windings=2 Xhl=1.200
~ wdg=1 bus=16107-10889131.1.2.3 conn=delta Kv=13.8 Kva=112.5 %R=0.500
~ wdg=2 bus=2785746-10889131v.1.2.3.4 conn=wye Kv=0.2200 Kva=112.5 %R=0.500
New Transformer.2785696 phases=3 windings=2 Xhl=1.200
~ wdg=1 bus=16107-10889137.1.2.3 conn=delta Kv=13.8 Kva=150.0 %R=0.500
~ wdg=2 bus=2785696-10889137v.1.2.3.4 conn=wye Kv=0.2200 Kva=150.0 %R=0.500
New Transformer.3135026 phases=3 windings=2 Xhl=1.200
~ wdg=1 bus=16107-10889233.1.2.3 conn=delta Kv=13.8 Kva=45.0 %R=0.500
~ wdg=2 bus=3135026-10889234.1.2.3.4 conn=wye Kv=0.2200 Kva=45.0 %R=0.500
New Transformer.2785686 phases=3 windings=2 Xhl=1.200
~ wdg=1 bus=16107-10889242.1.2.3 conn=delta Kv=13.8 Kva=75.0 %R=0.500
~ wdg=2 bus=2785686-10889243.1.2.3.4 conn=wye Kv=0.2200 Kva=75.0 %R=0.500
New Transformer.3097653 phases=3 windings=2 Xhl=1.200
~ wdg=1 bus=16107-10889275.1.2.3 conn=delta Kv=13.8 Kva=45.0 %R=0.500
~ wdg=2 bus=3097653-10889276.1.2.3.4 conn=wye Kv=0.2200 Kva=45.0 %R=0.500
New Transformer.2785607 phases=3 windings=2 Xhl=1.200
~ wdg=1 bus=16107-10889289.1.2.3 conn=delta Kv=13.8 Kva=75.0 %R=0.500
~ wdg=2 bus=2785607-10889290.1.2.3.4 conn=wye Kv=0.2200 Kva=75.0 %R=0.500
New Transformer.2785593 phases=3 windings=2 Xhl=1.200
~ wdg=1 bus=16107-10889409.1.2.3 conn=delta Kv=13.8 Kva=75.0 %R=0.500
~ wdg=2 bus=2785593-10889410.1.2.3.4 conn=wye Kv=0.2200 Kva=75.0 %R=0.500
New Transformer.3135110 phases=3 windings=2 Xhl=1.200
~ wdg=1 bus=16107-10889411.1.2.3 conn=delta Kv=13.8 Kva=75.0 %R=0.500
~ wdg=2 bus=3135110-10889412.1.2.3.4 conn=wye Kv=0.2200 Kva=75.0 %R=0.500
New Transformer.3097254 phases=3 windings=2 Xhl=1.200
~ wdg=1 bus=16107-10889420.1.2.3 conn=delta Kv=13.8 Kva=75.0 %R=0.500
~ wdg=2 bus=3097254-10889421.1.2.3.4 conn=wye Kv=0.2200 Kva=75.0 %R=0.500
New Transformer.2785685 phases=3 windings=2 Xhl=1.200
~ wdg=1 bus=16107-10889432.1.2.3 conn=delta Kv=13.8 Kva=112.5 %R=0.500
~ wdg=2 bus=2785685-10889433.1.2.3.4 conn=wye Kv=0.2200 Kva=112.5 %R=0.500
New Transformer.2857378 phases=3 windings=2 Xhl=1.200
~ wdg=1 bus=16107-11313410.1.2.3 conn=delta Kv=13.8 Kva=112.5 %R=0.500
~ wdg=2 bus=2857378-11313410v.1.2.3.4 conn=wye Kv=0.2200 Kva=112.5 %R=0.500
New Transformer.2950833 phases=3 windings=2 Xhl=1.200
~ wdg=1 bus=16107-11501087.1.2.3 conn=delta Kv=13.8 Kva=45.0 %R=0.500
~ wdg=2 bus=2950833-10888955.1.2.3.4 conn=wye Kv=0.2200 Kva=45.0 %R=0.500
New Transformer.3108292 phases=3 windings=2 Xhl=1.200
~ wdg=1 bus=16107-11545553.1.2.3 conn=delta Kv=13.8 Kva=75.0 %R=0.500
~ wdg=2 bus=3108292-12396049.1.2.3.4 conn=wye Kv=0.2200 Kva=75.0 %R=0.500
New Transformer.3108013 phases=3 windings=2 Xhl=1.200
~ wdg=1 bus=16107-11545557.1.2.3 conn=delta Kv=13.8 Kva=45.0 %R=0.500
~ wdg=2 bus=3108013-12394661.1.2.3.4 conn=wye Kv=0.2200 Kva=45.0 %R=0.500
New Transformer.3017010 phases=3 windings=2 Xhl=1.200
~ wdg=1 bus=16107-11817725.1.2.3 conn=delta Kv=13.8 Kva=225.0 %R=0.500
~ wdg=2 bus=3017010-11817725v.1.2.3.4 conn=wye Kv=0.2200 Kva=225.0 %R=0.500
New Transformer.3113990 phases=3 windings=2 Xhl=1.200
~ wdg=1 bus=16107-11870867.1.2.3 conn=delta Kv=13.8 Kva=1000.0 %R=0.500
~ wdg=2 bus=3113990-11870867v.1.2.3.4 conn=wye Kv=0.2200 Kva=1000.0 %R=0.500
New Transformer.3135194 phases=3 windings=2 Xhl=1.200
~ wdg=1 bus=16107-11933324.1.2.3 conn=delta Kv=13.8 Kva=45.0 %R=0.500
~ wdg=2 bus=3135194-11933325.1.2.3.4 conn=wye Kv=0.2200 Kva=45.0 %R=0.500
New Transformer.3065791 phases=3 windings=2 Xhl=1.200
~ wdg=1 bus=16107-12115609.1.2.3 conn=delta Kv=13.8 Kva=75.0 %R=0.500
~ wdg=2 bus=3065791-12600878.1.2.3.4 conn=wye Kv=0.2200 Kva=75.0 %R=0.500
New Transformer.3071898 phases=3 windings=2 Xhl=1.200
~ wdg=1 bus=16107-12161392.1.2.3 conn=delta Kv=13.8 Kva=112.5 %R=0.500
~ wdg=2 bus=3071898-12161392v.1.2.3.4 conn=wye Kv=0.2200 Kva=112.5 %R=0.500
New Transformer.3097238 phases=3 windings=2 Xhl=1.200
~ wdg=1 bus=16107-12333772.1.2.3 conn=delta Kv=13.8 Kva=75.0 %R=0.500
~ wdg=2 bus=3097238-10869693.1.2.3.4 conn=wye Kv=0.2200 Kva=75.0 %R=0.500
New Transformer.3097256 phases=3 windings=2 Xhl=1.200
~ wdg=1 bus=16107-12333882.1.2.3 conn=delta Kv=13.8 Kva=75.0 %R=0.500
~ wdg=2 bus=3097256-12333883.1.2.3.4 conn=wye Kv=0.2200 Kva=75.0 %R=0.500
New Transformer.2785595 phases=3 windings=2 Xhl=1.200
~ wdg=1 bus=16107-12333973.1.2.3 conn=delta Kv=13.8 Kva=225.0 %R=0.500
~ wdg=2 bus=2785595-12333973v.1.2.3.4 conn=wye Kv=0.2200 Kva=225.0 %R=0.500
New Transformer.2942003 phases=3 windings=2 Xhl=1.200
~ wdg=1 bus=16107-12333991.1.2.3 conn=delta Kv=13.8 Kva=75.0 %R=0.500
~ wdg=2 bus=2942003-10888237.1.2.3.4 conn=wye Kv=0.2200 Kva=75.0 %R=0.500
New Transformer.3097445 phases=3 windings=2 Xhl=1.200
~ wdg=1 bus=16107-12335540.1.2.3 conn=delta Kv=13.8 Kva=75.0 %R=0.500
~ wdg=2 bus=3097445-12335541.1.2.3.4 conn=wye Kv=0.2200 Kva=75.0 %R=0.500
New Transformer.3097447 phases=3 windings=2 Xhl=1.200
~ wdg=1 bus=16107-12335551.1.2.3 conn=delta Kv=13.8 Kva=75.0 %R=0.500
~ wdg=2 bus=3097447-10868952.1.2.3.4 conn=wye Kv=0.2200 Kva=75.0 %R=0.500
New Transformer.3097450 phases=3 windings=2 Xhl=1.200
~ wdg=1 bus=16107-12335560.1.2.3 conn=delta Kv=13.8 Kva=45.0 %R=0.500
~ wdg=2 bus=3097450-10868634.1.2.3.4 conn=wye Kv=0.2200 Kva=45.0 %R=0.500
New Transformer.3097453 phases=3 windings=2 Xhl=1.200
~ wdg=1 bus=16107-12335564.1.2.3 conn=delta Kv=13.8 Kva=75.0 %R=0.500
~ wdg=2 bus=3097453-10870763.1.2.3.4 conn=wye Kv=0.2200 Kva=75.0 %R=0.500
New Transformer.3097466 phases=3 windings=2 Xhl=1.200
~ wdg=1 bus=16107-12335569.1.2.3 conn=delta Kv=13.8 Kva=112.5 %R=0.500
~ wdg=2 bus=3097466-12335570.1.2.3.4 conn=wye Kv=0.2200 Kva=112.5 %R=0.500
New Transformer.3097504 phases=3 windings=2 Xhl=1.200
~ wdg=1 bus=16107-12335658.1.2.3 conn=delta Kv=13.8 Kva=75.0 %R=0.500
~ wdg=2 bus=3097504-12335657.1.2.3.4 conn=wye Kv=0.2200 Kva=75.0 %R=0.500
New Transformer.2783307 phases=3 windings=2 Xhl=1.200
~ wdg=1 bus=16107-12335663.1.2.3 conn=delta Kv=13.8 Kva=225.0 %R=0.500
~ wdg=2 bus=2783307-12335663v.1.2.3.4 conn=wye Kv=0.2200 Kva=225.0 %R=0.500
New Transformer.3097645 phases=3 windings=2 Xhl=1.200
~ wdg=1 bus=16107-12335834.1.2.3 conn=delta Kv=13.8 Kva=75.0 %R=0.500
~ wdg=2 bus=3097645-10889395.1.2.3.4 conn=wye Kv=0.2200 Kva=75.0 %R=0.500
New Transformer.3171041 phases=3 windings=2 Xhl=1.200
~ wdg=1 bus=16107-12335851.1.2.3 conn=delta Kv=13.8 Kva=75.0 %R=0.500
~ wdg=2 bus=3171041-12812568.1.2.3.4 conn=wye Kv=0.2200 Kva=75.0 %R=0.500
New Transformer.3104498 phases=3 windings=2 Xhl=1.200
~ wdg=1 bus=16107-12335854.1.2.3 conn=delta Kv=13.8 Kva=112.5 %R=0.500
~ wdg=2 bus=3104498-10888576.1.2.3.4 conn=wye Kv=0.2200 Kva=112.5 %R=0.500
New Transformer.3038563 phases=3 windings=2 Xhl=1.200
~ wdg=1 bus=16107-12335861.1.2.3 conn=delta Kv=13.8 Kva=112.5 %R=0.500
~ wdg=2 bus=3038563-10888965.1.2.3.4 conn=wye Kv=0.2200 Kva=112.5 %R=0.500
New Transformer.3097648 phases=3 windings=2 Xhl=1.200
~ wdg=1 bus=16107-12335886.1.2.3 conn=delta Kv=13.8 Kva=75.0 %R=0.500
~ wdg=2 bus=3097648-12335887.1.2.3.4 conn=wye Kv=0.2200 Kva=75.0 %R=0.500
New Transformer.3097655 phases=3 windings=2 Xhl=1.200
~ wdg=1 bus=16107-12335922.1.2.3 conn=delta Kv=13.8 Kva=75.0 %R=0.500
~ wdg=2 bus=3097655-12335923.1.2.3.4 conn=wye Kv=0.2200 Kva=75.0 %R=0.500
New Transformer.3097833 phases=3 windings=2 Xhl=1.200
~ wdg=1 bus=16107-12336483.1.2.3 conn=delta Kv=13.8 Kva=45.0 %R=0.500
~ wdg=2 bus=3097833-12336490.1.2.3.4 conn=wye Kv=0.2200 Kva=45.0 %R=0.500
New Transformer.3097835 phases=3 windings=2 Xhl=1.200
~ wdg=1 bus=16107-12336488.1.2.3 conn=delta Kv=13.8 Kva=45.0 %R=0.500
~ wdg=2 bus=3097835-12336488v.1.2.3.4 conn=wye Kv=0.2200 Kva=45.0 %R=0.500
New Transformer.2785636 phases=3 windings=2 Xhl=1.200
~ wdg=1 bus=16107-12336509.1.2.3 conn=delta Kv=13.8 Kva=150.0 %R=0.500
~ wdg=2 bus=2785636-12336509v.1.2.3.4 conn=wye Kv=0.2200 Kva=150.0 %R=0.500
New Transformer.3097860 phases=3 windings=2 Xhl=1.200
~ wdg=1 bus=16107-12336512.1.2.3 conn=delta Kv=13.8 Kva=75.0 %R=0.500
~ wdg=2 bus=3097860-12336786.1.2.3.4 conn=wye Kv=0.2200 Kva=75.0 %R=0.500
New Transformer.3097859 phases=3 windings=2 Xhl=1.200
~ wdg=1 bus=16107-12336773.1.2.3 conn=delta Kv=13.8 Kva=75.0 %R=0.500
~ wdg=2 bus=3097859-12336779.1.2.3.4 conn=wye Kv=0.2200 Kva=75.0 %R=0.500
New Transformer.3098486 phases=3 windings=2 Xhl=1.200
~ wdg=1 bus=16107-12339560.1.2.3 conn=delta Kv=13.8 Kva=45.0 %R=0.500
~ wdg=2 bus=3098486-10889524.1.2.3.4 conn=wye Kv=0.2200 Kva=45.0 %R=0.500
New Transformer.3098493 phases=3 windings=2 Xhl=1.200
~ wdg=1 bus=16107-12339582.1.2.3 conn=delta Kv=13.8 Kva=75.0 %R=0.500
~ wdg=2 bus=3098493-10888192.1.2.3.4 conn=wye Kv=0.2200 Kva=75.0 %R=0.500
New Transformer.3098495 phases=3 windings=2 Xhl=1.200
~ wdg=1 bus=16107-12339591.1.2.3 conn=delta Kv=13.8 Kva=45.0 %R=0.500
~ wdg=2 bus=3098495-10888761.1.2.3.4 conn=wye Kv=0.2200 Kva=45.0 %R=0.500
New Transformer.3098509 phases=3 windings=2 Xhl=1.200
~ wdg=1 bus=16107-12339614.1.2.3 conn=delta Kv=13.8 Kva=45.0 %R=0.500
~ wdg=2 bus=3098509-10889352.1.2.3.4 conn=wye Kv=0.2200 Kva=45.0 %R=0.500
New Transformer.3098516 phases=3 windings=2 Xhl=1.200
~ wdg=1 bus=16107-12339632.1.2.3 conn=delta Kv=13.8 Kva=45.0 %R=0.500
~ wdg=2 bus=3098516-10888556.1.2.3.4 conn=wye Kv=0.2200 Kva=45.0 %R=0.500
New Transformer.3098537 phases=3 windings=2 Xhl=1.200
~ wdg=1 bus=16107-12339729.1.2.3 conn=delta Kv=13.8 Kva=75.0 %R=0.500
~ wdg=2 bus=3098537-12339728.1.2.3.4 conn=wye Kv=0.2200 Kva=75.0 %R=0.500
New Transformer.3098540 phases=3 windings=2 Xhl=1.200
~ wdg=1 bus=16107-12339733.1.2.3 conn=delta Kv=13.8 Kva=45.0 %R=0.500
~ wdg=2 bus=3098540-10889561.1.2.3.4 conn=wye Kv=0.2200 Kva=45.0 %R=0.500
New Transformer.3098557 phases=3 windings=2 Xhl=1.200
~ wdg=1 bus=16107-12339739.1.2.3 conn=delta Kv=13.8 Kva=45.0 %R=0.500
~ wdg=2 bus=3098557-10888186.1.2.3.4 conn=wye Kv=0.2200 Kva=45.0 %R=0.500
New Transformer.2785747 phases=3 windings=2 Xhl=1.200
~ wdg=1 bus=16107-12339757.1.2.3 conn=delta Kv=13.8 Kva=75.0 %R=0.500
~ wdg=2 bus=2785747-10889500.1.2.3.4 conn=wye Kv=0.2200 Kva=75.0 %R=0.500
New Transformer.3098545 phases=3 windings=2 Xhl=1.200
~ wdg=1 bus=16107-12339771.1.2.3 conn=delta Kv=13.8 Kva=112.5 %R=0.500
~ wdg=2 bus=3098545-10888189.1.2.3.4 conn=wye Kv=0.2200 Kva=112.5 %R=0.500
New Transformer.3140803 phases=3 windings=2 Xhl=1.200
~ wdg=1 bus=16107-12339777.1.2.3 conn=delta Kv=13.8 Kva=45.0 %R=0.500
~ wdg=2 bus=3140803-10888187.1.2.3.4 conn=wye Kv=0.2200 Kva=45.0 %R=0.500
New Transformer.3098548 phases=3 windings=2 Xhl=1.200
~ wdg=1 bus=16107-12339785.1.2.3 conn=delta Kv=13.8 Kva=75.0 %R=0.500
~ wdg=2 bus=3098548-12339786.1.2.3.4 conn=wye Kv=0.2200 Kva=75.0 %R=0.500
New Transformer.3098559 phases=3 windings=2 Xhl=1.200
~ wdg=1 bus=16107-12339834.1.2.3 conn=delta Kv=13.8 Kva=45.0 %R=0.500
~ wdg=2 bus=3098559-10889159.1.2.3.4 conn=wye Kv=0.2200 Kva=45.0 %R=0.500
New Transformer.3135702 phases=3 windings=2 Xhl=1.200
~ wdg=1 bus=16107-12371013.1.2.3 conn=delta Kv=13.8 Kva=75.0 %R=0.500
~ wdg=2 bus=3135702-12570800.1.2.3.4 conn=wye Kv=0.2200 Kva=75.0 %R=0.500
New Transformer.3104496 phases=3 windings=2 Xhl=1.200
~ wdg=1 bus=16107-12371213.1.2.3 conn=delta Kv=13.8 Kva=112.5 %R=0.500
~ wdg=2 bus=3104496-10869441.1.2.3.4 conn=wye Kv=0.2200 Kva=112.5 %R=0.500
New Transformer.3107882 phases=3 windings=2 Xhl=1.200
~ wdg=1 bus=16107-12393547.1.2.3 conn=delta Kv=13.8 Kva=75.0 %R=0.500
~ wdg=2 bus=3107882-10888766.1.2.3.4 conn=wye Kv=0.2200 Kva=75.0 %R=0.500
New Transformer.3135560 phases=3 windings=2 Xhl=1.200
~ wdg=1 bus=16107-12394696.1.2.3 conn=delta Kv=13.8 Kva=75.0 %R=0.500
~ wdg=2 bus=3135560-12570013.1.2.3.4 conn=wye Kv=0.2200 Kva=75.0 %R=0.500
New Transformer.2785714 phases=3 windings=2 Xhl=1.200
~ wdg=1 bus=16107-12395604.1.2.3 conn=delta Kv=13.8 Kva=112.5 %R=0.500
~ wdg=2 bus=2785714-10888199.1.2.3.4 conn=wye Kv=0.2200 Kva=112.5 %R=0.500
New Transformer.3108604 phases=3 windings=2 Xhl=1.200
~ wdg=1 bus=16107-12397976.1.2.3 conn=delta Kv=13.8 Kva=75.0 %R=0.500
~ wdg=2 bus=3108604-12397976v.1.2.3.4 conn=wye Kv=0.2200 Kva=75.0 %R=0.500
New Transformer.3109379 phases=3 windings=2 Xhl=1.200
~ wdg=1 bus=16107-12401720.1.2.3 conn=delta Kv=13.8 Kva=112.5 %R=0.500
~ wdg=2 bus=3109379-12401720v.1.2.3.4 conn=wye Kv=0.2200 Kva=112.5 %R=0.500
New Transformer.3109534 phases=3 windings=2 Xhl=1.200
~ wdg=1 bus=16107-12402188.1.2.3 conn=delta Kv=13.8 Kva=112.5 %R=0.500
~ wdg=2 bus=3109534-12402188v.1.2.3.4 conn=wye Kv=0.2200 Kva=112.5 %R=0.500
New Transformer.2785603 phases=3 windings=2 Xhl=1.200
~ wdg=1 bus=16107-12403933.1.2.3 conn=delta Kv=13.8 Kva=112.5 %R=0.500
~ wdg=2 bus=2785603-10889197.1.2.3.4 conn=wye Kv=0.2200 Kva=112.5 %R=0.500
New Transformer.3109973 phases=3 windings=2 Xhl=1.200
~ wdg=1 bus=16107-12404789.1.2.3 conn=delta Kv=13.8 Kva=112.5 %R=0.500
~ wdg=2 bus=3109973-12404789v.1.2.3.4 conn=wye Kv=0.2200 Kva=112.5 %R=0.500
New Transformer.3110097 phases=3 windings=2 Xhl=1.200
~ wdg=1 bus=16107-12405371.1.2.3 conn=delta Kv=13.8 Kva=45.0 %R=0.500
~ wdg=2 bus=3110097-10888797.1.2.3.4 conn=wye Kv=0.2200 Kva=45.0 %R=0.500
New Transformer.3110089 phases=3 windings=2 Xhl=1.200
~ wdg=1 bus=16107-12405391.1.2.3 conn=delta Kv=13.8 Kva=45.0 %R=0.500
~ wdg=2 bus=3110089-12404787.1.2.3.4 conn=wye Kv=0.2200 Kva=45.0 %R=0.500
New Transformer.3110984 phases=3 windings=2 Xhl=1.200
~ wdg=1 bus=16107-12407835.1.2.3 conn=delta Kv=13.8 Kva=75.0 %R=0.500
~ wdg=2 bus=3110984-10889008.1.2.3.4 conn=wye Kv=0.2200 Kva=75.0 %R=0.500
New Transformer.3111360 phases=3 windings=2 Xhl=1.200
~ wdg=1 bus=16107-12407852.1.2.3 conn=delta Kv=13.8 Kva=75.0 %R=0.500
~ wdg=2 bus=3111360-10888197.1.2.3.4 conn=wye Kv=0.2200 Kva=75.0 %R=0.500
New Transformer.3113874 phases=3 windings=2 Xhl=1.200
~ wdg=1 bus=16107-12445461.1.2.3 conn=delta Kv=13.8 Kva=225.0 %R=0.500
~ wdg=2 bus=3113874-12445461v.1.2.3.4 conn=wye Kv=0.2200 Kva=225.0 %R=0.500
New Transformer.3117238 phases=3 windings=2 Xhl=1.200
~ wdg=1 bus=16107-12461664.1.2.3 conn=delta Kv=13.8 Kva=225.0 %R=0.500
~ wdg=2 bus=3117238-12461664v.1.2.3.4 conn=wye Kv=0.2200 Kva=225.0 %R=0.500
New Transformer.3123983 phases=3 windings=2 Xhl=1.200
~ wdg=1 bus=16107-12501399.1.2.3 conn=delta Kv=13.8 Kva=75.0 %R=0.500
~ wdg=2 bus=3123983-12501399v.1.2.3.4 conn=wye Kv=0.2200 Kva=75.0 %R=0.500
New Transformer.2785692 phases=3 windings=2 Xhl=1.200
~ wdg=1 bus=16107-12567513.1.2.3 conn=delta Kv=13.8 Kva=75.0 %R=0.500
~ wdg=2 bus=2785692-12567513v.1.2.3.4 conn=wye Kv=0.2200 Kva=75.0 %R=0.500
New Transformer.3135180 phases=3 windings=2 Xhl=1.200
~ wdg=1 bus=16107-12568067.1.2.3 conn=delta Kv=13.8 Kva=75.0 %R=0.500
~ wdg=2 bus=3135180-10888430.1.2.3.4 conn=wye Kv=0.2200 Kva=75.0 %R=0.500
New Transformer.3188848 phases=3 windings=2 Xhl=1.200
~ wdg=1 bus=16107-12568100.1.2.3 conn=delta Kv=13.8 Kva=75.0 %R=0.500
~ wdg=2 bus=3188848-12973577.1.2.3.4 conn=wye Kv=0.2200 Kva=75.0 %R=0.500
New Transformer.2785620 phases=3 windings=2 Xhl=1.200
~ wdg=1 bus=16107-12568140.1.2.3 conn=delta Kv=13.8 Kva=112.5 %R=0.500
~ wdg=2 bus=2785620-12569467.1.2.3.4 conn=wye Kv=0.2200 Kva=112.5 %R=0.500
New Transformer.3135196 phases=3 windings=2 Xhl=1.200
~ wdg=1 bus=16107-12568150.1.2.3 conn=delta Kv=13.8 Kva=112.5 %R=0.500
~ wdg=2 bus=3135196-10889360.1.2.3.4 conn=wye Kv=0.2200 Kva=112.5 %R=0.500
New Transformer.2785668 phases=3 windings=2 Xhl=1.200
~ wdg=1 bus=16107-12569526.1.2.3 conn=delta Kv=13.8 Kva=112.5 %R=0.500
~ wdg=2 bus=2785668-10888384.1.2.3.4 conn=wye Kv=0.2200 Kva=112.5 %R=0.500
New Transformer.3135396 phases=3 windings=2 Xhl=1.200
~ wdg=1 bus=16107-12569565.1.2.3 conn=delta Kv=13.8 Kva=45.0 %R=0.500
~ wdg=2 bus=3135396-10889571.1.2.3.4 conn=wye Kv=0.2200 Kva=45.0 %R=0.500
New Transformer.3135426 phases=3 windings=2 Xhl=1.200
~ wdg=1 bus=16107-12569675.1.2.3 conn=delta Kv=13.8 Kva=75.0 %R=0.500
~ wdg=2 bus=3135426-10888998.1.2.3.4 conn=wye Kv=0.2200 Kva=75.0 %R=0.500
New Transformer.2785634 phases=3 windings=2 Xhl=1.200
~ wdg=1 bus=16107-12569847.1.2.3 conn=delta Kv=13.8 Kva=112.5 %R=0.500
~ wdg=2 bus=2785634-12569847v.1.2.3.4 conn=wye Kv=0.2200 Kva=112.5 %R=0.500
New Transformer.2785725 phases=3 windings=2 Xhl=1.200
~ wdg=1 bus=16107-12569898.1.2.3 conn=delta Kv=13.8 Kva=300.0 %R=0.500
~ wdg=2 bus=2785725-12569898v.1.2.3.4 conn=wye Kv=0.2200 Kva=300.0 %R=0.500
New Transformer.3135691 phases=3 windings=2 Xhl=1.200
~ wdg=1 bus=16107-12570753.1.2.3 conn=delta Kv=13.8 Kva=75.0 %R=0.500
~ wdg=2 bus=3135691-12570754.1.2.3.4 conn=wye Kv=0.2200 Kva=75.0 %R=0.500
New Transformer.2857342 phases=3 windings=2 Xhl=1.200
~ wdg=1 bus=16107-12570758.1.2.3 conn=delta Kv=13.8 Kva=112.5 %R=0.500
~ wdg=2 bus=2857342-12570758v.1.2.3.4 conn=wye Kv=0.2200 Kva=112.5 %R=0.500
New Transformer.3135709 phases=3 windings=2 Xhl=1.200
~ wdg=1 bus=16107-12570807.1.2.3 conn=delta Kv=13.8 Kva=75.0 %R=0.500
~ wdg=2 bus=3135709-12570807v.1.2.3.4 conn=wye Kv=0.2200 Kva=75.0 %R=0.500
New Transformer.3140646 phases=3 windings=2 Xhl=1.200
~ wdg=1 bus=16107-12600873.1.2.3 conn=delta Kv=13.8 Kva=75.0 %R=0.500
~ wdg=2 bus=3140646-12600877.1.2.3.4 conn=wye Kv=0.2200 Kva=75.0 %R=0.500
New Transformer.3156234 phases=3 windings=2 Xhl=1.200
~ wdg=1 bus=16107-12639655.1.2.3 conn=delta Kv=13.8 Kva=75.0 %R=0.500
~ wdg=2 bus=3156234-12639655v.1.2.3.4 conn=wye Kv=0.2200 Kva=75.0 %R=0.500
New Transformer.3147570 phases=3 windings=2 Xhl=1.200
~ wdg=1 bus=16107-12639656.1.2.3 conn=delta Kv=13.8 Kva=75.0 %R=0.500
~ wdg=2 bus=3147570-12639656v.1.2.3.4 conn=wye Kv=0.2200 Kva=75.0 %R=0.500
New Transformer.3149227 phases=3 windings=2 Xhl=1.200
~ wdg=1 bus=16107-12648820.1.2.3 conn=delta Kv=13.8 Kva=75.0 %R=0.500
~ wdg=2 bus=3149227-12648821.1.2.3.4 conn=wye Kv=0.2200 Kva=75.0 %R=0.500
New Transformer.3154906 phases=3 windings=2 Xhl=1.200
~ wdg=1 bus=16107-12677530.1.2.3 conn=delta Kv=13.8 Kva=150.0 %R=0.500
~ wdg=2 bus=3154906-12677530v.1.2.3.4 conn=wye Kv=0.2200 Kva=150.0 %R=0.500
New Transformer.3168450 phases=3 windings=2 Xhl=1.200
~ wdg=1 bus=16107-12798084.1.2.3 conn=delta Kv=13.8 Kva=75.0 %R=0.500
~ wdg=2 bus=3168450-12798084v.1.2.3.4 conn=wye Kv=0.2200 Kva=75.0 %R=0.500
New Transformer.3170958 phases=3 windings=2 Xhl=1.200
~ wdg=1 bus=16107-12811092.1.2.3 conn=delta Kv=13.8 Kva=75.0 %R=0.500
~ wdg=2 bus=3170958-12811092v.1.2.3.4 conn=wye Kv=0.2200 Kva=75.0 %R=0.500
New Transformer.3173415 phases=3 windings=2 Xhl=1.200
~ wdg=1 bus=16107-12850017.1.2.3 conn=delta Kv=13.8 Kva=75.0 %R=0.500
~ wdg=2 bus=3173415-12850017v.1.2.3.4 conn=wye Kv=0.2200 Kva=75.0 %R=0.500
New Transformer.3175182 phases=3 windings=2 Xhl=1.200
~ wdg=1 bus=16107-12857467.1.2.3 conn=delta Kv=13.8 Kva=75.0 %R=0.500
~ wdg=2 bus=3175182-12857469.1.2.3.4 conn=wye Kv=0.2200 Kva=75.0 %R=0.500
New Transformer.3176102 phases=3 windings=2 Xhl=1.200
~ wdg=1 bus=16107-12865541.1.2.3 conn=delta Kv=13.8 Kva=75.0 %R=0.500
~ wdg=2 bus=3176102-12865541v.1.2.3.4 conn=wye Kv=0.2200 Kva=75.0 %R=0.500
New Transformer.3180258 phases=1 windings=3 Xhl=1.200 Xht=1.200 Xlt=0.600
~ wdg=1 bus=16107-12886837.1 conn=wye Kv=7.9674 Kva=75.0 %R=0.500
~ wdg=2 bus=3180258-12886837v.1.4 conn=wye Kv=0.1100 Kva=75.0 %R=0.500
~ wdg=3 bus=3180258-12886837v.4.2 conn=wye Kv=0.1100 Kva=75.0 %R=0.500
New Transformer.3192908 phases=3 windings=2 Xhl=1.200
~ wdg=1 bus=16107-13025146.1.2.3 conn=delta Kv=13.8 Kva=112.5 %R=0.500
~ wdg=2 bus=3192908-13025146v.1.2.3.4 conn=wye Kv=0.2200 Kva=112.5 %R=0.500
New Transformer.2785637 phases=3 windings=2 Xhl=1.200
~ wdg=1 bus=16107-13048210.1.2.3 conn=delta Kv=13.8 Kva=500.0 %R=0.500
~ wdg=2 bus=2785637-13048210v.1.2.3.4 conn=wye Kv=0.2200 Kva=500.0 %R=0.500
New Transformer.3197373 phases=3 windings=2 Xhl=1.200
~ wdg=1 bus=16107-13061075.1.2.3 conn=delta Kv=13.8 Kva=112.5 %R=0.500
~ wdg=2 bus=3197373-13061075v.1.2.3.4 conn=wye Kv=0.2200 Kva=112.5 %R=0.500
New Transformer.3203896 phases=3 windings=2 Xhl=1.200
~ wdg=1 bus=16107-13117169.1.2.3 conn=delta Kv=13.8 Kva=75.0 %R=0.500
~ wdg=2 bus=3203896-13117169v.1.2.3.4 conn=wye Kv=0.2200 Kva=75.0 %R=0.500
New Transformer.3205547 phases=3 windings=2 Xhl=1.200
~ wdg=1 bus=16107-13128021.1.2.3 conn=delta Kv=13.8 Kva=75.0 %R=0.500
~ wdg=2 bus=3205547-13128021v.1.2.3.4 conn=wye Kv=0.2200 Kva=75.0 %R=0.500
New Transformer.3213119 phases=3 windings=2 Xhl=1.200
~ wdg=1 bus=16107-13207932.1.2.3 conn=delta Kv=13.8 Kva=75.0 %R=0.500
~ wdg=2 bus=3213119-13207932v.1.2.3.4 conn=wye Kv=0.2200 Kva=75.0 %R=0.500
New Transformer.3134639 phases=3 windings=2 Xhl=1.200
~ wdg=1 bus=16112-10910203.1.2.3 conn=delta Kv=13.8 Kva=112.5 %R=0.500
~ wdg=2 bus=3134639-10910204.1.2.3.4 conn=wye Kv=0.2200 Kva=112.5 %R=0.500
New Transformer.2788525 phases=1 windings=3 Xhl=1.200 Xht=1.200 Xlt=0.600
~ wdg=1 bus=16112-10910240.2 conn=wye Kv=7.9674 Kva=10.0 %R=0.500
~ wdg=2 bus=2788525-10910241.1.4 conn=wye Kv=0.1100 Kva=10.0 %R=0.500
~ wdg=3 bus=2788525-10910241.4.2 conn=wye Kv=0.1100 Kva=10.0 %R=0.500
New Transformer.2788893 phases=1 windings=3 Xhl=1.200 Xht=1.200 Xlt=0.600
~ wdg=1 bus=16112-10910442.1 conn=wye Kv=7.9674 Kva=10.0 %R=0.500
~ wdg=2 bus=2788893-10910443.1.4 conn=wye Kv=0.1100 Kva=10.0 %R=0.500
~ wdg=3 bus=2788893-10910443.4.2 conn=wye Kv=0.1100 Kva=10.0 %R=0.500
New Transformer.2788634 phases=1 windings=3 Xhl=1.200 Xht=1.200 Xlt=0.600
~ wdg=1 bus=16112-10910469.1 conn=wye Kv=7.9674 Kva=10.0 %R=0.500
~ wdg=2 bus=2788634-10910470.1.4 conn=wye Kv=0.1100 Kva=10.0 %R=0.500
~ wdg=3 bus=2788634-10910470.4.2 conn=wye Kv=0.1100 Kva=10.0 %R=0.500
New Transformer.3098255 phases=3 windings=2 Xhl=1.200
~ wdg=1 bus=16112-10910780.1.2.3 conn=delta Kv=13.8 Kva=45.0 %R=0.500
~ wdg=2 bus=3098255-10910781.1.2.3.4 conn=wye Kv=0.2200 Kva=45.0 %R=0.500
New Transformer.2788606 phases=1 windings=3 Xhl=1.200 Xht=1.200 Xlt=0.600
~ wdg=1 bus=16112-10910902.2 conn=wye Kv=7.9674 Kva=10.0 %R=0.500
~ wdg=2 bus=2788606-10910903.1.4 conn=wye Kv=0.1100 Kva=10.0 %R=0.500
~ wdg=3 bus=2788606-10910903.4.2 conn=wye Kv=0.1100 Kva=10.0 %R=0.500
New Transformer.2788815 phases=1 windings=3 Xhl=1.200 Xht=1.200 Xlt=0.600
~ wdg=1 bus=16112-10910906.2 conn=wye Kv=7.9674 Kva=10.0 %R=0.500
~ wdg=2 bus=2788815-10910906v.1.4 conn=wye Kv=0.1100 Kva=10.0 %R=0.500
~ wdg=3 bus=2788815-10910906v.4.2 conn=wye Kv=0.1100 Kva=10.0 %R=0.500
New Transformer.2789082 phases=1 windings=3 Xhl=1.200 Xht=1.200 Xlt=0.600
~ wdg=1 bus=16112-10911003.1 conn=wye Kv=7.9674 Kva=10.0 %R=0.500
~ wdg=2 bus=2789082-10911003v.1.4 conn=wye Kv=0.1100 Kva=10.0 %R=0.500
~ wdg=3 bus=2789082-10911003v.4.2 conn=wye Kv=0.1100 Kva=10.0 %R=0.500
New Transformer.2788515 phases=1 windings=3 Xhl=1.200 Xht=1.200 Xlt=0.600
~ wdg=1 bus=16112-10911005.3 conn=wye Kv=7.9674 Kva=10.0 %R=0.500
~ wdg=2 bus=2788515-10911006.1.4 conn=wye Kv=0.1100 Kva=10.0 %R=0.500
~ wdg=3 bus=2788515-10911006.4.2 conn=wye Kv=0.1100 Kva=10.0 %R=0.500
New Transformer.2788713 phases=1 windings=3 Xhl=1.200 Xht=1.200 Xlt=0.600
~ wdg=1 bus=16112-10911018.1 conn=wye Kv=7.9674 Kva=10.0 %R=0.500
~ wdg=2 bus=2788713-10911018v.1.4 conn=wye Kv=0.1100 Kva=10.0 %R=0.500
~ wdg=3 bus=2788713-10911018v.4.2 conn=wye Kv=0.1100 Kva=10.0 %R=0.500
New Transformer.2788504 phases=1 windings=3 Xhl=1.200 Xht=1.200 Xlt=0.600
~ wdg=1 bus=16112-10911019.1 conn=wye Kv=7.9674 Kva=10.0 %R=0.500
~ wdg=2 bus=2788504-10911020.1.4 conn=wye Kv=0.1100 Kva=10.0 %R=0.500
~ wdg=3 bus=2788504-10911020.4.2 conn=wye Kv=0.1100 Kva=10.0 %R=0.500
New Transformer.2789085 phases=1 windings=3 Xhl=1.200 Xht=1.200 Xlt=0.600
~ wdg=1 bus=16112-10911041.2 conn=wye Kv=7.9674 Kva=10.0 %R=0.500
~ wdg=2 bus=2789085-10911041v.1.4 conn=wye Kv=0.1100 Kva=10.0 %R=0.500
~ wdg=3 bus=2789085-10911041v.4.2 conn=wye Kv=0.1100 Kva=10.0 %R=0.500
New Transformer.2788719 phases=1 windings=3 Xhl=1.200 Xht=1.200 Xlt=0.600
~ wdg=1 bus=16112-10911043.2 conn=wye Kv=7.9674 Kva=10.0 %R=0.500
~ wdg=2 bus=2788719-10911043v.1.4 conn=wye Kv=0.1100 Kva=10.0 %R=0.500
~ wdg=3 bus=2788719-10911043v.4.2 conn=wye Kv=0.1100 Kva=10.0 %R=0.500
New Transformer.2788900 phases=3 windings=2 Xhl=1.200
~ wdg=1 bus=16112-10911272.1.2.3 conn=delta Kv=13.8 Kva=75.0 %R=0.500
~ wdg=2 bus=2788900-10911273.1.2.3.4 conn=wye Kv=0.2200 Kva=75.0 %R=0.500
New Transformer.2788678 phases=1 windings=3 Xhl=1.200 Xht=1.200 Xlt=0.600
~ wdg=1 bus=16112-10911322.2 conn=wye Kv=7.9674 Kva=10.0 %R=0.500
~ wdg=2 bus=2788678-10911324.1.4 conn=wye Kv=0.1100 Kva=10.0 %R=0.500
~ wdg=3 bus=2788678-10911324.4.2 conn=wye Kv=0.1100 Kva=10.0 %R=0.500
New Transformer.2789048 phases=1 windings=3 Xhl=1.200 Xht=1.200 Xlt=0.600
~ wdg=1 bus=16112-10911326.2 conn=wye Kv=7.9674 Kva=10.0 %R=0.500
~ wdg=2 bus=2789048-10911328.1.4 conn=wye Kv=0.1100 Kva=10.0 %R=0.500
~ wdg=3 bus=2789048-10911328.4.2 conn=wye Kv=0.1100 Kva=10.0 %R=0.500
New Transformer.2788824 phases=1 windings=3 Xhl=1.200 Xht=1.200 Xlt=0.600
~ wdg=1 bus=16112-10911416.1 conn=wye Kv=7.9674 Kva=10.0 %R=0.500
~ wdg=2 bus=2788824-10911418.1.4 conn=wye Kv=0.1100 Kva=10.0 %R=0.500
~ wdg=3 bus=2788824-10911418.4.2 conn=wye Kv=0.1100 Kva=10.0 %R=0.500
New Transformer.2788821 phases=1 windings=3 Xhl=1.200 Xht=1.200 Xlt=0.600
~ wdg=1 bus=16112-10911420.1 conn=wye Kv=7.9674 Kva=10.0 %R=0.500
~ wdg=2 bus=2788821-10911422.1.4 conn=wye Kv=0.1100 Kva=10.0 %R=0.500
~ wdg=3 bus=2788821-10911422.4.2 conn=wye Kv=0.1100 Kva=10.0 %R=0.500
New Transformer.2788722 phases=1 windings=3 Xhl=1.200 Xht=1.200 Xlt=0.600
~ wdg=1 bus=16112-10911424.1 conn=wye Kv=7.9674 Kva=25.0 %R=0.500
~ wdg=2 bus=2788722-10911426.1.4 conn=wye Kv=0.1100 Kva=25.0 %R=0.500
~ wdg=3 bus=2788722-10911426.4.2 conn=wye Kv=0.1100 Kva=25.0 %R=0.500
New Transformer.2789200 phases=1 windings=3 Xhl=1.200 Xht=1.200 Xlt=0.600
~ wdg=1 bus=16112-10911467.1 conn=wye Kv=7.9674 Kva=10.0 %R=0.500
~ wdg=2 bus=2789200-10911469.1.4 conn=wye Kv=0.1100 Kva=10.0 %R=0.500
~ wdg=3 bus=2789200-10911469.4.2 conn=wye Kv=0.1100 Kva=10.0 %R=0.500
New Transformer.2788999 phases=1 windings=3 Xhl=1.200 Xht=1.200 Xlt=0.600
~ wdg=1 bus=16112-10911486.2 conn=wye Kv=7.9674 Kva=10.0 %R=0.500
~ wdg=2 bus=2788999-10911487.1.4 conn=wye Kv=0.1100 Kva=10.0 %R=0.500
~ wdg=3 bus=2788999-10911487.4.2 conn=wye Kv=0.1100 Kva=10.0 %R=0.500
New Transformer.2789192 phases=1 windings=3 Xhl=1.200 Xht=1.200 Xlt=0.600
~ wdg=1 bus=16112-10911790.2 conn=wye Kv=7.9674 Kva=5.0 %R=0.500
~ wdg=2 bus=2789192-10911790v.1.4 conn=wye Kv=0.1100 Kva=5.0 %R=0.500
~ wdg=3 bus=2789192-10911790v.4.2 conn=wye Kv=0.1100 Kva=5.0 %R=0.500
New Transformer.2789304 phases=1 windings=3 Xhl=1.200 Xht=1.200 Xlt=0.600
~ wdg=1 bus=16112-10911939.2 conn=wye Kv=7.9674 Kva=10.0 %R=0.500
~ wdg=2 bus=2789304-10911941.1.4 conn=wye Kv=0.1100 Kva=10.0 %R=0.500
~ wdg=3 bus=2789304-10911941.4.2 conn=wye Kv=0.1100 Kva=10.0 %R=0.500
New Transformer.2789092 phases=1 windings=3 Xhl=1.200 Xht=1.200 Xlt=0.600
~ wdg=1 bus=16112-10912010.1 conn=wye Kv=7.9674 Kva=10.0 %R=0.500
~ wdg=2 bus=2789092-10912012.1.4 conn=wye Kv=0.1100 Kva=10.0 %R=0.500
~ wdg=3 bus=2789092-10912012.4.2 conn=wye Kv=0.1100 Kva=10.0 %R=0.500
New Transformer.2788960 phases=1 windings=3 Xhl=1.200 Xht=1.200 Xlt=0.600
~ wdg=1 bus=16112-10912378.1 conn=wye Kv=7.9674 Kva=5.0 %R=0.500
~ wdg=2 bus=2788960-10912380.1.4 conn=wye Kv=0.1100 Kva=5.0 %R=0.500
~ wdg=3 bus=2788960-10912380.4.2 conn=wye Kv=0.1100 Kva=5.0 %R=0.500
New Transformer.2788785 phases=1 windings=3 Xhl=1.200 Xht=1.200 Xlt=0.600
~ wdg=1 bus=16112-10912413.1 conn=wye Kv=7.9674 Kva=25.0 %R=0.500
~ wdg=2 bus=2788785-10912416.1.4 conn=wye Kv=0.1100 Kva=25.0 %R=0.500
~ wdg=3 bus=2788785-10912416.4.2 conn=wye Kv=0.1100 Kva=25.0 %R=0.500
New Transformer.3134655 phases=3 windings=2 Xhl=1.200
~ wdg=1 bus=16112-10912733.1.2.3 conn=delta Kv=13.8 Kva=75.0 %R=0.500
~ wdg=2 bus=3134655-10912735.1.2.3.4 conn=wye Kv=0.2200 Kva=75.0 %R=0.500
New Transformer.2788903 phases=1 windings=3 Xhl=1.200 Xht=1.200 Xlt=0.600
~ wdg=1 bus=16112-10912809.2 conn=wye Kv=7.9674 Kva=10.0 %R=0.500
~ wdg=2 bus=2788903-10912811.1.4 conn=wye Kv=0.1100 Kva=10.0 %R=0.500
~ wdg=3 bus=2788903-10912811.4.2 conn=wye Kv=0.1100 Kva=10.0 %R=0.500
New Transformer.2788657 phases=1 windings=3 Xhl=1.200 Xht=1.200 Xlt=0.600
~ wdg=1 bus=16112-10912815.2 conn=wye Kv=7.9674 Kva=15.0 %R=0.500
~ wdg=2 bus=2788657-10912817.1.4 conn=wye Kv=0.1100 Kva=15.0 %R=0.500
~ wdg=3 bus=2788657-10912817.4.2 conn=wye Kv=0.1100 Kva=15.0 %R=0.500
New Transformer.2789149 phases=1 windings=3 Xhl=1.200 Xht=1.200 Xlt=0.600
~ wdg=1 bus=16112-10912883.2 conn=wye Kv=7.9674 Kva=10.0 %R=0.500
~ wdg=2 bus=2789149-10912885.1.4 conn=wye Kv=0.1100 Kva=10.0 %R=0.500
~ wdg=3 bus=2789149-10912885.4.2 conn=wye Kv=0.1100 Kva=10.0 %R=0.500
New Transformer.3105593 phases=1 windings=3 Xhl=1.200 Xht=1.200 Xlt=0.600
~ wdg=1 bus=16112-10913025.1 conn=wye Kv=7.9674 Kva=10.0 %R=0.500
~ wdg=2 bus=3105593-10913027.1.4 conn=wye Kv=0.1100 Kva=10.0 %R=0.500
~ wdg=3 bus=3105593-10913027.4.2 conn=wye Kv=0.1100 Kva=10.0 %R=0.500
New Transformer.2789195 phases=1 windings=3 Xhl=1.200 Xht=1.200 Xlt=0.600
~ wdg=1 bus=16112-10913029.1 conn=wye Kv=7.9674 Kva=10.0 %R=0.500
~ wdg=2 bus=2789195-10913031.1.4 conn=wye Kv=0.1100 Kva=10.0 %R=0.500
~ wdg=3 bus=2789195-10913031.4.2 conn=wye Kv=0.1100 Kva=10.0 %R=0.500
New Transformer.2789001 phases=1 windings=3 Xhl=1.200 Xht=1.200 Xlt=0.600
~ wdg=1 bus=16112-10913054.3 conn=wye Kv=7.9674 Kva=10.0 %R=0.500
~ wdg=2 bus=2789001-10913056.1.4 conn=wye Kv=0.1100 Kva=10.0 %R=0.500
~ wdg=3 bus=2789001-10913056.4.2 conn=wye Kv=0.1100 Kva=10.0 %R=0.500
New Transformer.2788740 phases=1 windings=3 Xhl=1.200 Xht=1.200 Xlt=0.600
~ wdg=1 bus=16112-10913115.2 conn=wye Kv=7.9674 Kva=10.0 %R=0.500
~ wdg=2 bus=2788740-10913118.1.4 conn=wye Kv=0.1100 Kva=10.0 %R=0.500
~ wdg=3 bus=2788740-10913118.4.2 conn=wye Kv=0.1100 Kva=10.0 %R=0.500
New Transformer.2789289 phases=1 windings=3 Xhl=1.200 Xht=1.200 Xlt=0.600
~ wdg=1 bus=16112-10913126.2 conn=wye Kv=7.9674 Kva=25.0 %R=0.500
~ wdg=2 bus=2789289-10913128.1.4 conn=wye Kv=0.1100 Kva=25.0 %R=0.500
~ wdg=3 bus=2789289-10913128.4.2 conn=wye Kv=0.1100 Kva=25.0 %R=0.500
New Transformer.2789100 phases=1 windings=3 Xhl=1.200 Xht=1.200 Xlt=0.600
~ wdg=1 bus=16112-10913477.2 conn=wye Kv=7.9674 Kva=10.0 %R=0.500
~ wdg=2 bus=2789100-10913479.1.4 conn=wye Kv=0.1100 Kva=10.0 %R=0.500
~ wdg=3 bus=2789100-10913479.4.2 conn=wye Kv=0.1100 Kva=10.0 %R=0.500
New Transformer.2788792 phases=1 windings=3 Xhl=1.200 Xht=1.200 Xlt=0.600
~ wdg=1 bus=16112-10913511.1 conn=wye Kv=7.9674 Kva=10.0 %R=0.500
~ wdg=2 bus=2788792-10913511v.1.4 conn=wye Kv=0.1100 Kva=10.0 %R=0.500
~ wdg=3 bus=2788792-10913511v.4.2 conn=wye Kv=0.1100 Kva=10.0 %R=0.500
New Transformer.2788727 phases=1 windings=3 Xhl=1.200 Xht=1.200 Xlt=0.600
~ wdg=1 bus=16112-10913629.1 conn=wye Kv=7.9674 Kva=10.0 %R=0.500
~ wdg=2 bus=2788727-10913629v.1.4 conn=wye Kv=0.1100 Kva=10.0 %R=0.500
~ wdg=3 bus=2788727-10913629v.4.2 conn=wye Kv=0.1100 Kva=10.0 %R=0.500
New Transformer.2788733 phases=1 windings=3 Xhl=1.200 Xht=1.200 Xlt=0.600
~ wdg=1 bus=16112-10913649.2 conn=wye Kv=7.9674 Kva=10.0 %R=0.500
~ wdg=2 bus=2788733-10913649v.1.4 conn=wye Kv=0.1100 Kva=10.0 %R=0.500
~ wdg=3 bus=2788733-10913649v.4.2 conn=wye Kv=0.1100 Kva=10.0 %R=0.500
New Transformer.2789295 phases=1 windings=3 Xhl=1.200 Xht=1.200 Xlt=0.600
~ wdg=1 bus=16112-10913659.2 conn=wye Kv=7.9674 Kva=10.0 %R=0.500
~ wdg=2 bus=2789295-10913659v.1.4 conn=wye Kv=0.1100 Kva=10.0 %R=0.500
~ wdg=3 bus=2789295-10913659v.4.2 conn=wye Kv=0.1100 Kva=10.0 %R=0.500
New Transformer.2788730 phases=1 windings=3 Xhl=1.200 Xht=1.200 Xlt=0.600
~ wdg=1 bus=16112-10913671.2 conn=wye Kv=7.9674 Kva=15.0 %R=0.500
~ wdg=2 bus=2788730-10913673.1.4 conn=wye Kv=0.1100 Kva=15.0 %R=0.500
~ wdg=3 bus=2788730-10913673.4.2 conn=wye Kv=0.1100 Kva=15.0 %R=0.500
New Transformer.2788732 phases=1 windings=3 Xhl=1.200 Xht=1.200 Xlt=0.600
~ wdg=1 bus=16112-10913679.2 conn=wye Kv=7.9674 Kva=25.0 %R=0.500
~ wdg=2 bus=2788732-10913681.1.4 conn=wye Kv=0.1100 Kva=25.0 %R=0.500
~ wdg=3 bus=2788732-10913681.4.2 conn=wye Kv=0.1100 Kva=25.0 %R=0.500
New Transformer.3187636 phases=1 windings=3 Xhl=1.200 Xht=1.200 Xlt=0.600
~ wdg=1 bus=16112-10913748.2 conn=wye Kv=7.9674 Kva=25.0 %R=0.500
~ wdg=2 bus=3187636-10913750.1.4 conn=wye Kv=0.1100 Kva=25.0 %R=0.500
~ wdg=3 bus=3187636-10913750.4.2 conn=wye Kv=0.1100 Kva=25.0 %R=0.500
New Transformer.2788624 phases=1 windings=3 Xhl=1.200 Xht=1.200 Xlt=0.600
~ wdg=1 bus=16112-10913752.2 conn=wye Kv=7.9674 Kva=10.0 %R=0.500
~ wdg=2 bus=2788624-10913754.1.4 conn=wye Kv=0.1100 Kva=10.0 %R=0.500
~ wdg=3 bus=2788624-10913754.4.2 conn=wye Kv=0.1100 Kva=10.0 %R=0.500
New Transformer.2789089 phases=1 windings=3 Xhl=1.200 Xht=1.200 Xlt=0.600
~ wdg=1 bus=16112-10913758.2 conn=wye Kv=7.9674 Kva=10.0 %R=0.500
~ wdg=2 bus=2789089-10913760.1.4 conn=wye Kv=0.1100 Kva=10.0 %R=0.500
~ wdg=3 bus=2789089-10913760.4.2 conn=wye Kv=0.1100 Kva=10.0 %R=0.500
New Transformer.2789307 phases=1 windings=3 Xhl=1.200 Xht=1.200 Xlt=0.600
~ wdg=1 bus=16112-10913860.1 conn=wye Kv=7.9674 Kva=10.0 %R=0.500
~ wdg=2 bus=2789307-10913862.1.4 conn=wye Kv=0.1100 Kva=10.0 %R=0.500
~ wdg=3 bus=2789307-10913862.4.2 conn=wye Kv=0.1100 Kva=10.0 %R=0.500
New Transformer.2788856 phases=1 windings=3 Xhl=1.200 Xht=1.200 Xlt=0.600
~ wdg=1 bus=16112-10913879.1 conn=wye Kv=7.9674 Kva=15.0 %R=0.500
~ wdg=2 bus=2788856-10913881.1.4 conn=wye Kv=0.1100 Kva=15.0 %R=0.500
~ wdg=3 bus=2788856-10913881.4.2 conn=wye Kv=0.1100 Kva=15.0 %R=0.500
New Transformer.2789228 phases=1 windings=3 Xhl=1.200 Xht=1.200 Xlt=0.600
~ wdg=1 bus=16112-10914405.1 conn=wye Kv=7.9674 Kva=10.0 %R=0.500
~ wdg=2 bus=2789228-10914407.1.4 conn=wye Kv=0.1100 Kva=10.0 %R=0.500
~ wdg=3 bus=2789228-10914407.4.2 conn=wye Kv=0.1100 Kva=10.0 %R=0.500
New Transformer.2788629 phases=3 windings=2 Xhl=1.200
~ wdg=1 bus=16112-10914417.1.2.3 conn=delta Kv=13.8 Kva=75.0 %R=0.500
~ wdg=2 bus=2788629-10914419.1.2.3.4 conn=wye Kv=0.2200 Kva=75.0 %R=0.500
New Transformer.2789317 phases=3 windings=2 Xhl=1.200
~ wdg=1 bus=16112-10914432.1.2.3 conn=delta Kv=13.8 Kva=45.0 %R=0.500
~ wdg=2 bus=2789317-10914434.1.2.3.4 conn=wye Kv=0.2200 Kva=45.0 %R=0.500
New Transformer.2788832 phases=1 windings=3 Xhl=1.200 Xht=1.200 Xlt=0.600
~ wdg=1 bus=16112-10914632.2 conn=wye Kv=7.9674 Kva=25.0 %R=0.500
~ wdg=2 bus=2788832-10914634.1.4 conn=wye Kv=0.1100 Kva=25.0 %R=0.500
~ wdg=3 bus=2788832-10914634.4.2 conn=wye Kv=0.1100 Kva=25.0 %R=0.500
New Transformer.2789202 phases=1 windings=3 Xhl=1.200 Xht=1.200 Xlt=0.600
~ wdg=1 bus=16112-10914862.2 conn=wye Kv=7.9674 Kva=10.0 %R=0.500
~ wdg=2 bus=2789202-10914864.1.4 conn=wye Kv=0.1100 Kva=10.0 %R=0.500
~ wdg=3 bus=2789202-10914864.4.2 conn=wye Kv=0.1100 Kva=10.0 %R=0.500
New Transformer.2789209 phases=1 windings=3 Xhl=1.200 Xht=1.200 Xlt=0.600
~ wdg=1 bus=16112-10914871.2 conn=wye Kv=7.9674 Kva=10.0 %R=0.500
~ wdg=2 bus=2789209-10914872.1.4 conn=wye Kv=0.1100 Kva=10.0 %R=0.500
~ wdg=3 bus=2789209-10914872.4.2 conn=wye Kv=0.1100 Kva=10.0 %R=0.500
New Transformer.2788737 phases=1 windings=3 Xhl=1.200 Xht=1.200 Xlt=0.600
~ wdg=1 bus=16112-10914936.2 conn=wye Kv=7.9674 Kva=10.0 %R=0.500
~ wdg=2 bus=2788737-10914938.1.4 conn=wye Kv=0.1100 Kva=10.0 %R=0.500
~ wdg=3 bus=2788737-10914938.4.2 conn=wye Kv=0.1100 Kva=10.0 %R=0.500
New Transformer.2789039 phases=1 windings=3 Xhl=1.200 Xht=1.200 Xlt=0.600
~ wdg=1 bus=16112-10914951.2 conn=wye Kv=7.9674 Kva=10.0 %R=0.500
~ wdg=2 bus=2789039-10914953.1.4 conn=wye Kv=0.1100 Kva=10.0 %R=0.500
~ wdg=3 bus=2789039-10914953.4.2 conn=wye Kv=0.1100 Kva=10.0 %R=0.500
New Transformer.2788932 phases=1 windings=3 Xhl=1.200 Xht=1.200 Xlt=0.600
...